# Generated by Catalysthub (Web: http://www.catalysthub.net/)
data_Al2Li3 
_symmetry_space_group_name_H-M          'P 1'
_cell_length_a      4.418698 
_cell_length_b      4.418698 
_cell_length_c      5.296002 
_cell_angle_alpha     65.343769 
_cell_angle_beta    114.656235 
_cell_angle_gamma    119.999997 
loop_ 
  _space_group_symop_operation_xyz 
  'x, y, z' 
loop_ 
  _atom_site_fract_x
  _atom_site_fract_y
  _atom_site_fract_z
  _atom_site_type_symbol
    0.801868     0.198134     0.405600 Al
    0.198133     0.801867     0.594400 Al
    0.000000     0.000000     0.000000 Li
    0.402534     0.597467     0.207602 Li
    0.597467     0.402534     0.792398 Li